/*--------------------------------*- C++ -*----------------------------------*\
  =========                 |
  \\      /  F ield         | OpenFOAM: The Open Source CFD Toolbox
   \\    /   O peration     | Website:  https://openfoam.org
    \\  /    A nd           | Version:  8
     \\/     M anipulation  |
\*---------------------------------------------------------------------------*/
FoamFile
{
    version     2.0;
    format      ascii;
    class       dictionary;
    object      blockMeshDict;
}
// * * * * * * * * * * * * * * * * * * * * * * * * * * * * * * * * * * * * * //

convertToMeters 1;

vertices
(
    (0 0 0)
    (44.5 0 0)
    (44.5 10 0)
    (0 10 0)
    (0 0 4)
    (44.5 0 4)
    (44.5 10 4)
    (0 10 4)
);

blocks
(
    hex (0 1 2 3 4 5 6 7) (90 20 10) simpleGrading (1 1 1)
);

edges
(
);

boundary
(
    atmosphere
    {
        type patch;
        faces
        (
            (4 5 6 7)
        );
    }
    bottom
    {
        type wall;
        faces
        (
            (0 3 2 1)
        );
    }
    left
    {
        type cyclic;
        neighbourPatch    right;
        faces
        (
            (0 4 7 3)
        );
    }
    right
    {
        type cyclic;
        neighbourPatch    left;
        faces
        (
            (2 6 5 1)
        );
    }
    entry
    {
        type wall;
        faces
        (
            (1 5 4 0)
        );
    }
    exit
    {
        type patch;
        faces
        (
            
            (3 7 6 2)
        );
    }
/*    building
    {
        type wall;
        faces
        (
        );
    }
*/
);

mergePatchPairs
(
);

// ************************************************************************* //
